          13
FINAL HEAT OF FORMATION =     -1521.4425344523  time =       0.0000000000
  C    0.1487973037   -0.3039905213   -0.1235030768
  C   -0.3675351720    0.4186083391    0.9206189918
  N    1.3158681589    0.0596602333   -0.7553880478
  H   -1.2358245981    0.0714013093    1.4911316727
  H    1.5823257299   -0.3463955415   -1.6227156050
  C    1.8845613852    1.3195963633   -0.4278264857
  O    2.9682859539    1.6781716515   -1.0307792640
  N    1.3138424590    2.1297088097    0.5681047271
  C    0.3033073915    1.6585311532    1.3219204331
  N   -0.1253661352    2.2981731684    2.4863145981
  H   -1.1166824997    2.3736960674    2.5566724912
  H    0.3642143609    3.1306754555    2.7354230436
  H   -0.3171023379   -1.2425944876   -0.4740454780
