          13
FINAL HEAT OF FORMATION =     -1513.8646384330  time =       0.0000000000
  C    0.0000000000    0.0000000000    0.0000000000
  C    0.0000000000    0.0000000000    1.3350000000
  N    1.2643970000    0.0000000000   -0.7300000000
  H   -0.9431020000    0.0000000000    1.8795000000
  H    1.0761860000    0.0000000000   -1.7426580000
  C    2.0299880000    1.1920850000   -0.3772910000
  O    3.1244830000    1.3851480000   -0.8804890000
  N    1.4857740000    2.1531280000    0.5776060000
  C    0.1746670000    1.6988230000    1.0317040000
  N   -0.3695470000    2.6598650000    1.9866010000
  H   -1.2945060000    2.3393620000    2.3069580000
  H    0.2651270000    2.7386190000    2.7939970000
  H   -0.0947750000   -0.9217880000   -0.5350000000
