          13
FINAL HEAT OF FORMATION =     -1521.6721208847  time =       0.0000000000
  C    0.1270308159   -0.2744581187   -0.1468198403
  C   -0.3754328046    0.4403460101    0.9104025168
  N    1.2498162234    0.1309388835   -0.8078154426
  H   -1.2699453362    0.1088655454    1.4464609676
  H    1.6118010114   -0.3845074608   -1.5768394256
  C    1.9387357399    1.3252832981   -0.3907983170
  O    2.9708182436    1.6112156925   -1.0301137829
  N    1.4423571299    2.0879876965    0.6733359001
  C    0.3261865858    1.6668441114    1.3000986830
  N   -0.1865249708    2.4038728021    2.3396836544
  H   -0.9995026685    2.0854294356    2.7990155866
  H    0.2431756798    3.2471027143    2.6291758539
  H   -0.3598236496   -1.2036786098   -0.4998583540
